
  EPA STORM WATER MANAGEMENT MODEL - VERSION 5.0 (Build 5.0.022)
  --------------------------------------------------------------

  
  *********************************************************
  NOTE: The summary statistics displayed in this report are
  based on results found at every computational time step,  
  not just on results from each reporting time step.
  *********************************************************
  
  ****************
  Analysis Options
  ****************
  Flow Units ............... LPS
  Process Models:
    Rainfall/Runoff ........ YES
    Snowmelt ............... NO
    Groundwater ............ NO
    Flow Routing ........... YES
    Ponding Allowed ........ NO
    Water Quality .......... NO
  Infiltration Method ...... HORTON
  Flow Routing Method ...... DYNWAVE
  Starting Date ............ OCT-21-2014 21:54:00
  Ending Date .............. OCT-22-2014 06:02:00
  Antecedent Dry Days ...... 0.0
  Report Time Step ......... 00:02:00
  Wet Time Step ............ 00:02:00
  Dry Time Step ............ 01:00:00
  Routing Time Step ........ 5.00 sec
  

  WARNING 01: wet weather time step reduced to recording interval for Rain Gage RG1
  
  **************************        Volume         Depth
  Runoff Quantity Continuity     hectare-m            mm
  **************************     ---------       -------
  Total Precipitation ......         0.765         6.196
  Evaporation Loss .........         0.000         0.000
  Infiltration Loss ........         0.500         4.049
  Surface Runoff ...........         0.183         1.480
  Final Surface Storage ....         0.083         0.670
  Continuity Error (%) .....        -0.039
  
  
  **************************        Volume        Volume
  Flow Routing Continuity        hectare-m      10^6 ltr
  **************************     ---------     ---------
  Dry Weather Inflow .......         0.000         0.000
  Wet Weather Inflow .......         0.183         1.828
  Groundwater Inflow .......         0.000         0.000
  RDII Inflow ..............         0.000         0.000
  External Inflow ..........         0.000         0.000
  External Outflow .........         0.182         1.823
  Internal Outflow .........         0.000         0.000
  Storage Losses ...........         0.000         0.000
  Initial Stored Volume ....         0.000         0.000
  Final Stored Volume ......         0.001         0.008
  Continuity Error (%) .....        -0.151
  
  
  ***************************
  Time-Step Critical Elements
  ***************************
  None
  
  
  ********************************
  Highest Flow Instability Indexes
  ********************************
  Link 313211 (1)
  
  
  *************************
  Routing Time Step Summary
  *************************
  Minimum Time Step           :     3.91 sec
  Average Time Step           :     5.00 sec
  Maximum Time Step           :     5.00 sec
  Percent in Steady State     :     0.00
  Average Iterations per Step :     2.00
  
  
  ***************************
  Subcatchment Runoff Summary
  ***************************
  
  --------------------------------------------------------------------------------------------------------
                            Total      Total      Total      Total      Total       Total     Peak  Runoff
                           Precip      Runon       Evap      Infil     Runoff      Runoff   Runoff   Coeff
  Subcatchment                 mm         mm         mm         mm         mm    10^6 ltr      LPS
  --------------------------------------------------------------------------------------------------------
  0                          5.84       0.00       0.00       3.63       1.75        0.00     1.03   0.299
  1                          5.84       0.00       0.00       5.11       0.57        0.01     2.48   0.098
  2                          5.84       0.00       0.00       3.96       1.48        0.00     1.55   0.254
  3                          5.84       0.00       0.00       4.72       0.89        0.00     0.92   0.152
  4                          5.84       0.00       0.00       4.93       0.72        0.00     0.43   0.123
  5                          5.84       0.00       0.00       4.14       1.34        0.00     1.75   0.229
  6                          5.84       0.00       0.00       4.75       0.86        0.00     1.02   0.147
  7                          5.84       0.00       0.00       4.96       0.69        0.00     0.67   0.119
  8                          5.84       0.00       0.00       3.29       2.01        0.01     2.29   0.344
  9                          5.84       0.00       0.00       4.17       1.31        0.00     2.28   0.225
  10                         5.84       0.00       0.00       4.99       0.67        0.00     1.25   0.115
  11                         5.84       0.00       0.00       4.32       1.19        0.01     2.54   0.204
  12                         5.84       0.00       0.00       3.56       1.79        0.01     2.79   0.307
  13                         5.84       0.00       0.00       4.32       1.20        0.00     1.14   0.205
  14                         5.84       0.00       0.00       0.00       5.20        0.00     1.99   0.891
  15                         5.84       0.00       0.00       3.80       1.60        0.00     2.21   0.274
  16                         5.84       0.00       0.00       4.32       1.19        0.01     2.63   0.204
  17                         5.84       0.00       0.00       4.90       0.74        0.00     1.14   0.127
  18                         5.84       0.00       0.00       4.35       1.17        0.01     2.71   0.200
  19                         5.84       0.00       0.00       3.87       1.55        0.01     2.55   0.266
  20                         5.84       0.00       0.00       3.56       1.79        0.00     2.02   0.307
  21                         5.84       0.00       0.00       4.20       1.29        0.00     1.55   0.221
  22                         5.84       0.00       0.00       3.53       1.81        0.01     4.12   0.310
  23                         5.84       0.00       0.00       4.69       0.91        0.00     2.11   0.155
  24                         5.84       0.00       0.00       3.93       1.51        0.00     1.45   0.258
  25                         5.84       0.00       0.00       4.96       0.69        0.00     1.04   0.119
  26                         5.84       0.00       0.00       4.62       0.95        0.01     3.11   0.163
  27                         5.84       0.00       0.00       4.23       1.27        0.00     2.02   0.217
  28                         5.84       0.00       0.00       4.45       1.10        0.00     0.80   0.189
  29                         5.84       0.00       0.00       4.53       1.03        0.00     2.18   0.176
  30                         5.84       0.00       0.00       4.23       1.27        0.01     2.53   0.217
  31                         5.84       0.00       0.00       3.77       1.62        0.01     3.22   0.278
  32                         5.84       0.00       0.00       3.80       1.60        0.01     3.24   0.274
  33                         5.84       0.00       0.00       3.53       1.81        0.01     4.05   0.310
  34                         5.84       0.00       0.00       4.08       1.38        0.01     2.62   0.237
  35                         5.84       0.00       0.00       4.23       1.26        0.01     3.10   0.217
  36                         5.84       0.00       0.00       3.71       1.67        0.01     5.30   0.286
  37                         5.84       0.00       0.00       3.74       1.65        0.01     2.55   0.282
  38                         5.84       0.00       0.00       4.32       1.20        0.00     0.92   0.205
  39                         5.84       0.00       0.00       4.33       1.20        0.00     0.56   0.205
  40                         5.84       0.00       0.00       2.90       2.34        0.00     1.55   0.400
  41                         5.84       0.00       0.00       4.17       1.31        0.01     3.11   0.225
  42                         5.84       0.00       0.00       4.54       1.03        0.00     0.43   0.177
  43                         5.84       0.00       0.00       4.23       1.27        0.01     2.62   0.217
  44                         5.84       0.00       0.00       0.00       5.21        0.00     1.48   0.892
  45                         5.84       0.00       0.00       3.81       1.61        0.00     0.56   0.275
  46                         5.84       0.00       0.00       0.00       5.24        0.00     0.33   0.898
  47                         5.84       0.00       0.00       3.35       1.96        0.00     1.14   0.336
  48                         5.84       0.00       0.00       3.08       2.18        0.00     1.24   0.373
  49                         5.84       0.00       0.00       5.09       0.60        0.00     0.15   0.103
  50                         5.84       0.00       0.00       5.84       0.00        0.00     0.00   0.000
  51                         5.84       0.00       0.00       3.72       1.67        0.00     1.65   0.286
  52                         5.84       0.00       0.00       3.65       1.72        0.01     3.79   0.294
  53                         5.84       0.00       0.00       4.51       1.05        0.00     0.55   0.181
  54                         5.84       0.00       0.00       0.00       5.24        0.00     0.33   0.898
  55                         5.84       0.00       0.00       3.17       2.10        0.00     1.65   0.360
  56                         5.84       0.00       0.00       4.07       1.38        0.01     5.09   0.237
  57                         5.84       0.00       0.00       3.89       1.53        0.01     4.67   0.261
  58                         5.84       0.00       0.00       5.29       0.43        0.00     1.36   0.074
  59                         5.84       0.00       0.00       4.84       0.79        0.00     0.55   0.135
  60                         5.84       0.00       0.00       0.18       5.30        0.02     6.80   0.907
  61                         5.84       0.00       0.00       0.18       5.30        0.02     7.15   0.907
  62                         5.84       0.00       0.00       0.93       4.59        0.01     6.23   0.786
  63                         5.84       0.00       0.00       0.99       4.53        0.01     6.01   0.777
  64                         5.84       0.00       0.00       0.41       5.08        0.01     6.41   0.870
  65                         5.84       0.00       0.00       1.11       4.43        0.01     6.21   0.758
  66                         5.84       0.00       0.00       2.28       3.33        0.01     4.82   0.571
  67                         7.52       0.00       0.00       4.44       1.60        0.05    11.94   0.213
  68                         6.30       0.00       0.00       6.30       0.00        0.00     0.00   0.000
  69                         5.84       0.00       0.00       4.24       0.97        0.00     1.08   0.167
  70                         7.52       0.00       0.00       7.39       0.08        0.00     0.63   0.010
  71                         7.52       0.00       0.00       5.68       1.06        0.01     4.00   0.141
  72                         6.30       0.00       0.00       4.58       1.38        0.02     7.47   0.218
  73                         5.84       0.00       0.00       4.41       1.12        0.01     5.55   0.192
  74                         6.30       0.00       0.00       4.12       1.74        0.01     4.58   0.276
  75                         6.30       0.00       0.00       4.32       1.59        0.01     4.04   0.252
  76                         6.30       0.00       0.00       4.03       1.82        0.00     2.00   0.289
  77                         6.30       0.00       0.00       3.64       2.13        0.02     6.09   0.338
  78                         7.52       0.00       0.00       6.40       0.65        0.02     8.50   0.086
  80                         7.52       0.00       0.00       6.31       0.70        0.01     5.98   0.093
  81                         5.84       0.00       0.00       4.59       0.98        0.01     3.56   0.168
  82                         5.84       0.00       0.00       4.14       1.34        0.01     3.48   0.229
  83                         5.84       0.00       0.00       5.05       0.62        0.00     2.18   0.106
  84                         5.84       0.00       0.00       3.83       1.57        0.01     3.13   0.270
  85                         5.84       0.00       0.00       3.80       1.60        0.01     2.38   0.274
  86                         5.84       0.00       0.00       4.69       0.91        0.00     1.03   0.156
  87                         5.84       0.00       0.00       4.26       1.24        0.00     2.27   0.213
  88                         5.84       0.00       0.00       4.35       1.17        0.01     3.84   0.200
  89                         5.84       0.00       0.00       3.50       1.84        0.01     2.79   0.315
  90                         5.84       0.00       0.00       3.93       1.50        0.01     2.54   0.258
  91                         5.84       0.00       0.00       4.99       0.67        0.01     2.38   0.115
  92                         5.84       0.00       0.00       5.05       0.62        0.00     2.20   0.106
  93                         5.84       0.00       0.00       3.68       1.69        0.01     4.94   0.290
  94                         6.30       0.00       0.00       3.32       2.40        0.00     1.23   0.381
  95                         7.52       0.00       0.00       5.62       1.59        0.00     2.21   0.211
  96                         6.30       0.00       0.00       0.00       5.70        0.00     0.87   0.904
  97                         6.30       0.00       0.00       0.00       5.67        0.00     2.03   0.900
  98                         7.52       0.00       0.00       4.27       2.74        0.00     0.91   0.364
  99                         5.84       0.00       0.00       3.11       2.15        0.00     1.14   0.369
  100                        5.84       0.00       0.00       3.57       1.79        0.00     1.14   0.307
  101                        5.84       0.00       0.00       3.57       1.80        0.00     0.43   0.308
  102                        5.84       0.00       0.00       3.78       1.62        0.00     1.74   0.278
  103                        5.84       0.00       0.00       4.53       1.03        0.00     2.10   0.176
  104                        5.84       0.00       0.00       4.02       1.44        0.00     0.43   0.247
  105                        5.84       0.00       0.00       3.83       1.58        0.01     2.95   0.270
  106                        6.30       0.00       0.00       4.03       1.82        0.01     4.63   0.289
  107                        6.30       0.00       0.00       4.22       1.67        0.01     2.79   0.264
  108                        7.52       0.00       0.00       4.86       2.21        0.01     5.65   0.294
  109                        6.30       0.00       0.00       4.32       1.59        0.00     1.81   0.252
  110                        6.30       0.00       0.00       4.13       1.75        0.00     0.94   0.277
  111                        6.30       0.00       0.00       5.04       1.02        0.01     2.10   0.161
  112                        6.30       0.00       0.00       4.71       1.28        0.01     2.41   0.202
  113                        6.30       0.00       0.00       4.58       1.38        0.01     4.70   0.219
  114                        6.30       0.00       0.00       4.45       1.49        0.00     1.31   0.236
  115                        6.30       0.00       0.00       4.70       1.32        0.00     0.15   0.210
  116                        6.30       0.00       0.00       4.15       1.76        0.00     0.28   0.279
  117                        5.84       0.00       0.00       4.37       1.14        0.03     9.93   0.195
  118                        5.84       0.00       0.00       4.31       1.19        0.03     9.43   0.203
  119                        5.84       0.00       0.00       3.80       1.60        0.01     3.30   0.274
  120                        5.84       0.00       0.00       3.32       1.98        0.01     3.34   0.339
  121                        6.30       0.00       0.00       4.16       1.72        0.00     2.02   0.273
  122                        6.30       0.00       0.00       5.14       0.94        0.00     0.51   0.149
  123                        6.30       0.00       0.00       4.78       1.22        0.01     3.54   0.194
  124                        5.84       0.00       0.00       4.17       1.31        0.00     2.28   0.225
  125                        6.30       0.00       0.00       4.81       1.20        0.00     1.90   0.190
  126                        6.30       0.00       0.00       4.70       1.32        0.00     0.15   0.210
  127                        6.30       0.00       0.00       4.97       1.07        0.00     1.62   0.169
  128                        6.30       0.00       0.00       4.13       1.75        0.00     1.13   0.277
  129                        6.30       0.00       0.00       4.04       1.83        0.00     0.83   0.290
  130                        6.30       0.00       0.00       0.00       5.69        0.00     1.12   0.903
  131                        6.30       0.00       0.00       4.22       1.66        0.01     4.39   0.264
  132                        6.30       0.00       0.00       4.35       1.56        0.01     2.62   0.248
  133                        6.30       0.00       0.00       4.58       1.38        0.00     2.02   0.219
  134                        6.30       0.00       0.00       4.48       1.46        0.01     2.40   0.231
  135                        6.30       1.81       0.00       7.26       0.72        0.00     1.00   0.089
  136                        6.30       0.00       0.00       5.36       0.76        0.00     0.83   0.120
  137                        6.30       0.00       0.00       4.71       1.28        0.01     2.98   0.202
  138                        6.30       0.00       0.00       4.26       1.64        0.00     1.61   0.260
  139                        6.30       0.00       0.00       4.88       1.15        0.00     0.84   0.182
  140                        6.30       0.00       0.00       4.68       1.31        0.00     0.83   0.207
  141                        6.30       0.00       0.00       3.13       2.58        0.00     1.60   0.410
  142                        6.30       0.00       0.00       4.13       1.75        0.00     1.50   0.277
  143                        6.30       0.00       0.00       3.65       2.14        0.00     1.04   0.339
  144                        6.30       0.00       0.00       0.00       5.67        0.01     2.86   0.899
  145                        6.30       0.00       0.00       3.32       2.40        0.00     1.23   0.381
  146                        6.30       0.00       0.00       4.55       1.41        0.00     1.50   0.223
  147                        6.30       0.00       0.00       4.91       1.12        0.01     2.21   0.178
  148                        6.30       0.00       0.00       4.97       1.07        0.01     2.32   0.169
  149                        6.30       0.00       0.00       4.61       1.35        0.01     2.70   0.215
  150                        6.30       0.00       0.00       4.32       1.59        0.01     3.19   0.252
  151                        6.30       0.00       0.00       0.00       5.74        0.00     0.32   0.911
  152                        6.30       0.00       0.00       4.01       1.86        0.00     0.62   0.294
  153                        6.30       0.00       0.00       5.20       0.89        0.00     1.70   0.141
  154                        6.30       0.00       0.00       3.61       2.16        0.01     3.47   0.343
  155                        6.30       0.00       0.00       4.65       1.33        0.01     3.95   0.210
  156                        6.30       0.00       0.00       4.49       1.46        0.00     1.03   0.232
  157                        6.30       0.00       0.00       4.03       1.82        0.01     3.56   0.289
  158                        6.30       0.00       0.00       3.68       2.11        0.00     1.40   0.335
  159                        6.30       0.00       0.00       4.04       1.83        0.00     0.83   0.290
  160                        6.30       0.00       0.00       0.00       5.68        0.00     1.36   0.902
  161                        6.30       0.00       0.00       3.35       2.37        0.00     1.13   0.377
  162                        6.30      19.21       0.00       0.00      24.90        0.01     2.96   0.976
  163                        6.30       0.00       0.00       4.78       1.23        0.00     0.84   0.195
  164                        6.30       0.00       0.00       4.69       1.31        0.00     0.28   0.208
  165                        6.30       0.00       0.00       4.14       1.75        0.00     0.52   0.278
  166                        6.30       0.00       0.00       4.91       1.12        0.00     0.73   0.178
  167                        6.30       0.00       0.00       4.32       1.59        0.01     3.19   0.252
  168                        6.30       0.00       0.00       3.74       2.06        0.00     1.23   0.327
  169                        6.30       0.00       0.00       3.87       1.96        0.00     1.31   0.310
  170                        6.30       0.00       0.00       3.62       2.17        0.00     0.62   0.344
  171                        5.84       0.00       0.00       4.45       1.10        0.00     0.80   0.189
  172                        5.84       0.00       0.00       5.08       0.60        0.00     1.03   0.102
  173                        5.84       0.00       0.00       5.54       0.24        0.00     0.69   0.041
  175                        7.52       0.00       0.00       5.22       1.31        0.04    13.30   0.174
  176                        7.52       0.00       0.00       4.16       1.75        0.04     9.15   0.232
  177                        5.84       0.00       0.00       5.38       0.36        0.01     2.98   0.061
  178                        5.84       0.00       0.00       0.98       2.80        0.20    69.46   0.479
  180                        5.84       0.00       0.00       5.11       0.44        0.03    11.54   0.075
  181                        5.84       0.00       0.00       5.03       0.48        0.01     2.40   0.082
  182                        5.84       0.00       0.00       5.80       0.02        0.00     0.13   0.004
  183                        5.84       0.00       0.00       4.93       0.55        0.01     3.96   0.094
  184                        7.52       0.00       0.00       6.13       0.80        0.02     6.51   0.106
  185                        7.52       0.00       0.00       3.87       1.89        0.04     9.67   0.251
  186                        5.84       0.00       0.00       5.84       0.00        0.00     0.00   0.000
  187                        5.84       0.00       0.00       4.17       1.01        0.01     3.53   0.174
  188                        5.84       0.00       0.00       1.75       2.86        0.06    21.44   0.490
  189                        5.84       0.00       0.00       5.84       0.00        0.00     0.00   0.000
  190                        5.84       0.00       0.00       3.26       2.23        0.01     4.79   0.383
  191                        5.84       0.00       0.00       3.50       1.77        0.02    11.29   0.302
  192                        5.84       0.00       0.00       2.34       2.65        0.02    11.04   0.454
  193                        5.84       0.00       0.00       5.84       0.00        0.00     0.00   0.000
  194                        5.84       0.00       0.00       4.93       0.55        0.00     1.21   0.094
  196                        5.84       0.00       0.00       2.61       2.56        0.08    34.48   0.439
  197                        5.84       0.00       0.00       2.42       2.00        0.15    41.15   0.342
  198                        5.84       0.00       0.00       0.29       3.32        0.11    39.56   0.569
  
  
  ******************
  Node Depth Summary
  ******************
  
  ---------------------------------------------------------------------
                                 Average  Maximum  Maximum  Time of Max
                                   Depth    Depth      HGL   Occurrence
  Node                 Type       Meters   Meters   Meters  days hr:min
  ---------------------------------------------------------------------
  79                   JUNCTION     0.04     0.17   254.43     0  01:10
  203259               JUNCTION     0.01     0.04   253.81     0  01:08
  228512               JUNCTION     0.03     0.15   253.05     0  01:10
  286796               JUNCTION     0.02     0.12   268.37     0  01:08
  286798               JUNCTION     0.04     0.16   251.88     0  01:11
  286832               JUNCTION     0.08     0.34   242.68     0  01:17
  286922               JUNCTION     0.07     0.28   243.78     0  01:16
  286924               JUNCTION     0.02     0.09   256.61     0  01:08
  286926               JUNCTION     0.02     0.08   256.97     0  01:05
  286928               JUNCTION     0.01     0.07   257.39     0  01:04
  286929               JUNCTION     0.01     0.07   257.60     0  01:04
  286930               JUNCTION     0.01     0.06   257.80     0  01:04
  286945               JUNCTION     0.04     0.19   253.72     0  01:10
  286991               JUNCTION     0.01     0.05   257.97     0  01:04
  286993               JUNCTION     0.00     0.02   260.07     0  01:04
  286996               JUNCTION     0.01     0.03   270.68     0  01:05
  286998               JUNCTION     0.02     0.10   269.94     0  01:07
  287000               JUNCTION     0.01     0.06   269.09     0  01:05
  287005               JUNCTION     0.02     0.07   272.68     0  01:07
  287018               JUNCTION     0.01     0.05   253.00     0  01:12
  287045               JUNCTION     0.00     0.02   276.18     0  00:57
  287046               JUNCTION     0.01     0.04   274.66     0  01:05
  287047               JUNCTION     0.00     0.02   274.49     0  00:57
  287049               JUNCTION     0.00     0.03   274.55     0  01:06
  287050               JUNCTION     0.01     0.03   275.07     0  01:04
  287089               JUNCTION     0.01     0.06   273.28     0  01:08
  287150               JUNCTION     0.01     0.05   274.14     0  01:06
  287151               JUNCTION     0.01     0.06   274.33     0  01:06
  287153               JUNCTION     0.01     0.04   275.79     0  01:05
  287161               JUNCTION     0.01     0.03   277.14     0  01:05
  287188               JUNCTION     0.03     0.15   256.37     0  01:08
  287189               JUNCTION     0.04     0.18   256.67     0  01:08
  287250               JUNCTION     0.03     0.13   258.67     0  01:08
  287276               JUNCTION     0.01     0.05   247.24     0  01:10
  287344               JUNCTION     0.00     0.02   260.86     0  01:04
  287348               JUNCTION     0.00     0.03   259.84     0  00:58
  287349               JUNCTION     0.00     0.03   260.35     0  00:57
  287410               JUNCTION     0.00     0.02   261.09     0  00:57
  287412               JUNCTION     0.00     0.00   261.45     0  00:00
  287413               JUNCTION     0.01     0.03   258.89     0  01:04
  287415               JUNCTION     0.01     0.03   261.74     0  01:04
  287416               JUNCTION     0.00     0.03   262.88     0  01:04
  287417               JUNCTION     0.00     0.02   263.78     0  01:04
  287420               JUNCTION     0.00     0.01   260.92     0  01:01
  287421               JUNCTION     0.02     0.12   261.14     0  01:08
  287422               JUNCTION     0.02     0.11   267.57     0  01:08
  287424               JUNCTION     0.01     0.05   270.53     0  01:05
  287425               JUNCTION     0.01     0.05   258.50     0  01:04
  287426               JUNCTION     0.00     0.02   263.24     0  00:58
  287427               JUNCTION     0.00     0.02   264.57     0  00:57
  287529               JUNCTION     0.02     0.10   259.25     0  01:05
  287530               JUNCTION     0.02     0.10   259.81     0  01:04
  287531               JUNCTION     0.01     0.06   260.76     0  01:06
  287539               JUNCTION     0.01     0.03   256.04     0  01:08
  287548               JUNCTION     0.00     0.00   257.54     0  00:00
  287570               JUNCTION     0.01     0.07   269.94     0  01:06
  287572               JUNCTION     0.01     0.07   270.88     0  01:05
  287582               JUNCTION     0.01     0.05   263.07     0  01:05
  287583               JUNCTION     0.01     0.05   263.36     0  01:05
  287585               JUNCTION     0.01     0.03   266.18     0  01:05
  287587               JUNCTION     0.00     0.03   268.32     0  01:04
  287623               JUNCTION     0.01     0.06   262.34     0  01:05
  287624               JUNCTION     0.01     0.04   263.62     0  01:05
  287626               JUNCTION     0.01     0.04   266.62     0  01:04
  287628               JUNCTION     0.00     0.03   269.48     0  00:58
  287651               JUNCTION     0.00     0.02   266.90     0  01:05
  287653               JUNCTION     0.00     0.02   269.58     0  00:57
  287655               JUNCTION     0.01     0.04   261.84     0  01:03
  287656               JUNCTION     0.01     0.03   262.39     0  01:04
  287657               JUNCTION     0.01     0.03   262.87     0  01:04
  287659               JUNCTION     0.00     0.02   260.12     0  01:04
  287663               JUNCTION     0.01     0.05   257.82     0  01:03
  287664               JUNCTION     0.01     0.05   258.24     0  01:04
  287672               JUNCTION     0.02     0.06   246.65     0  01:10
  287689               JUNCTION     0.03     0.12   260.83     0  01:05
  287706               JUNCTION     0.00     0.02   270.48     0  00:57
  287770               JUNCTION     0.00     0.00   268.98     0  00:00
  287773               JUNCTION     0.00     0.01   270.36     0  00:57
  287774               JUNCTION     0.00     0.00   269.27     0  00:00
  287776               JUNCTION     0.00     0.00   270.61     0  00:00
  287777               JUNCTION     0.01     0.03   271.26     0  01:04
  287780               JUNCTION     0.00     0.02   268.73     0  00:58
  287785               JUNCTION     0.01     0.04   270.76     0  01:05
  287786               JUNCTION     0.00     0.02   270.76     0  00:57
  287788               JUNCTION     0.00     0.02   258.96     0  01:06
  287849               JUNCTION     0.00     0.03   259.59     0  01:05
  287851               JUNCTION     0.00     0.03   260.82     0  00:57
  287852               JUNCTION     0.01     0.03   258.96     0  01:04
  287891               JUNCTION     0.00     0.02   258.19     0  01:04
  287892               JUNCTION     0.00     0.02   268.31     0  00:58
  287896               JUNCTION     0.01     0.03   264.00     0  01:04
  287932               JUNCTION     0.01     0.05   269.73     0  01:04
  287935               JUNCTION     0.01     0.05   269.75     0  01:05
  287936               JUNCTION     0.00     0.02   258.34     0  01:01
  287940               JUNCTION     0.00     0.02   258.39     0  01:04
  287941               JUNCTION     0.00     0.02   258.81     0  01:01
  287943               JUNCTION     0.00     0.03   257.91     0  01:01
  287944               JUNCTION     0.00     0.01   260.11     0  01:01
  287945               JUNCTION     0.00     0.00   259.95     0  00:00
  287948               JUNCTION     0.01     0.04   258.52     0  01:04
  288009               JUNCTION     0.01     0.06   269.85     0  01:05
  288011               JUNCTION     0.01     0.05   251.77     0  01:03
  288015               JUNCTION     0.01     0.06   250.18     0  01:04
  288018               JUNCTION     0.01     0.03   259.15     0  01:04
  288020               JUNCTION     0.00     0.02   259.54     0  01:01
  288021               JUNCTION     0.00     0.01   259.53     0  00:58
  288022               JUNCTION     0.00     0.03   258.89     0  01:01
  288023               JUNCTION     0.01     0.04   277.39     0  00:57
  288026               JUNCTION     0.09     0.36   242.02     0  01:17
  288339               JUNCTION     0.02     0.12   269.50     0  01:06
  288389               JUNCTION     0.00     0.02   275.83     0  00:57
  288391               JUNCTION     0.01     0.05   273.28     0  01:05
  288393               JUNCTION     0.01     0.04   274.48     0  01:05
  288395               JUNCTION     0.01     0.03   275.76     0  01:04
  288397               JUNCTION     0.01     0.03   275.79     0  01:05
  288398               JUNCTION     0.00     0.03   276.40     0  00:58
  288399               JUNCTION     0.00     0.02   273.90     0  00:57
  288400               JUNCTION     0.01     0.05   273.72     0  01:05
  288471               JUNCTION     0.01     0.03   273.46     0  01:04
  288473               JUNCTION     0.01     0.04   272.88     0  01:05
  288476               JUNCTION     0.00     0.00   272.11     0  00:00
  288477               JUNCTION     0.01     0.03   273.50     0  01:04
  288479               JUNCTION     0.01     0.04   272.43     0  01:05
  288481               JUNCTION     0.01     0.04   273.11     0  01:04
  288482               JUNCTION     0.01     0.06   270.89     0  01:05
  288483               JUNCTION     0.01     0.04   271.44     0  01:04
  288486               JUNCTION     0.01     0.06   272.06     0  01:05
  288488               JUNCTION     0.02     0.09   270.49     0  01:06
  288548               JUNCTION     0.02     0.08   270.96     0  01:06
  288551               JUNCTION     0.01     0.06   271.86     0  01:06
  288552               JUNCTION     0.01     0.05   272.44     0  01:05
  288553               JUNCTION     0.00     0.00   273.74     0  00:00
  288567               JUNCTION     0.01     0.07   271.62     0  01:05
  288628               JUNCTION     0.01     0.03   272.22     0  01:04
  288723               JUNCTION     0.04     0.18   256.38     0  01:10
  288787               JUNCTION     0.03     0.14   258.01     0  01:09
  288792               JUNCTION     0.03     0.12   261.75     0  01:08
  288796               JUNCTION     0.02     0.12   265.19     0  01:07
  288797               JUNCTION     0.02     0.11   266.41     0  01:06
  288948               JUNCTION     0.01     0.05   273.66     0  01:04
  288949               JUNCTION     0.01     0.05   273.07     0  01:04
  288950               JUNCTION     0.01     0.05   272.56     0  01:05
  289316               JUNCTION     0.06     0.26   252.38     0  01:11
  289317               JUNCTION     0.03     0.16   252.17     0  01:11
  289713               JUNCTION     0.06     0.25   251.01     0  01:12
  290971               JUNCTION     0.02     0.11   262.32     0  01:08
  291038               JUNCTION     0.03     0.13   262.90     0  01:08
  291039               JUNCTION     0.02     0.11   264.37     0  01:08
  291040               JUNCTION     0.02     0.11   265.72     0  01:08
  291043               JUNCTION     0.01     0.05   259.90     0  01:05
  291044               JUNCTION     0.01     0.05   260.70     0  01:05
  291047               JUNCTION     0.01     0.03   263.29     0  01:05
  291049               JUNCTION     0.01     0.03   263.86     0  01:05
  291050               JUNCTION     0.00     0.03   264.89     0  01:04
  291051               JUNCTION     0.00     0.02   265.90     0  01:04
  291053               JUNCTION     0.00     0.00   268.20     0  00:00
  291054               JUNCTION     0.03     0.12   268.95     0  01:07
  291056               JUNCTION     0.01     0.07   268.94     0  01:08
  291057               JUNCTION     0.01     0.07   269.46     0  01:08
  291117               JUNCTION     0.01     0.06   269.81     0  01:08
  291119               JUNCTION     0.00     0.02   270.64     0  01:08
  291120               JUNCTION     0.01     0.05   271.12     0  01:08
  291123               JUNCTION     0.01     0.06   272.52     0  01:09
  291133               JUNCTION     0.02     0.07   256.08     0  01:04
  291135               JUNCTION     0.01     0.05   256.36     0  01:05
  291195               JUNCTION     0.01     0.03   257.13     0  01:04
  291196               JUNCTION     0.01     0.03   257.71     0  01:04
  291198               JUNCTION     0.00     0.00   258.66     0  00:00
  291200               JUNCTION     0.00     0.03   259.10     0  01:04
  291204               JUNCTION     0.00     0.02   257.40     0  01:04
  291205               JUNCTION     0.04     0.18   255.45     0  01:08
  291206               JUNCTION     0.02     0.10   256.46     0  01:08
  291207               JUNCTION     0.04     0.21   254.92     0  01:09
  291209               JUNCTION     0.01     0.04   255.80     0  01:04
  291273               JUNCTION     0.02     0.10   257.51     0  01:06
  291275               JUNCTION     0.03     0.14   260.41     0  01:08
  291276               JUNCTION     0.01     0.06   255.91     0  01:06
  291277               JUNCTION     0.01     0.06   256.44     0  01:05
  291278               JUNCTION     0.01     0.04   258.29     0  01:05
  291282               JUNCTION     0.01     0.03   256.96     0  01:04
  291286               JUNCTION     0.00     0.00   258.56     0  00:00
  291287               JUNCTION     0.02     0.09   255.79     0  01:08
  291290               JUNCTION     0.04     0.17   255.88     0  01:08
  291292               JUNCTION     0.00     0.02   258.17     0  01:04
  291352               JUNCTION     0.00     0.03   258.56     0  01:04
  291358               JUNCTION     0.01     0.04   257.18     0  01:04
  291359               JUNCTION     0.01     0.03   256.48     0  01:04
  291361               JUNCTION     0.10     0.31   254.53     0  01:09
  291366               JUNCTION     0.01     0.05   255.99     0  01:07
  291368               JUNCTION     0.07     0.33   249.56     0  01:13
  291370               JUNCTION     0.01     0.04   253.22     0  01:03
  291371               JUNCTION     0.01     0.04   252.54     0  01:04
  291433               JUNCTION     0.08     0.37   249.92     0  01:12
  291443               JUNCTION     0.05     0.21   251.57     0  01:11
  291446               JUNCTION     0.05     0.22   253.70     0  01:10
  291448               JUNCTION     0.04     0.20   255.24     0  01:09
  291450               JUNCTION     0.02     0.08   253.30     0  01:08
  291500               JUNCTION     0.06     0.25   250.88     0  01:12
  291509               JUNCTION     0.01     0.03   276.71     0  00:57
  291510               JUNCTION     0.02     0.08   253.74     0  01:07
  291526               JUNCTION     0.03     0.12   254.86     0  01:06
  291528               JUNCTION     0.01     0.03   270.35     0  00:57
  291668               JUNCTION     0.08     0.36   248.84     0  01:14
  372646               JUNCTION     0.01     0.06   272.66     0  00:57
  375328               JUNCTION     0.01     0.06   271.33     0  01:05
  375329               JUNCTION     0.01     0.06   271.82     0  00:59
  375330               JUNCTION     0.01     0.06   272.20     0  00:58
  376001               JUNCTION     0.01     0.07   261.68     0  01:04
  376062               JUNCTION     0.00     0.00   261.91     0  00:00
  376063               JUNCTION     0.03     0.14   260.84     0  01:05
  376065               JUNCTION     0.02     0.09   261.45     0  01:05
  376070               JUNCTION     0.02     0.09   260.63     0  01:06
  378688               JUNCTION     0.01     0.05   274.81     0  01:04
  379563               JUNCTION     0.02     0.11   261.65     0  01:04
  379567               JUNCTION     0.02     0.10   262.31     0  01:04
  380358               JUNCTION     0.02     0.09   260.27     0  01:04
  380359               JUNCTION     0.02     0.11   260.59     0  01:04
  380441               JUNCTION     0.03     0.11   258.62     0  01:07
  380595               JUNCTION     0.00     0.00   261.46     0  00:00
  380597               JUNCTION     0.02     0.12   260.55     0  01:05
  380599               JUNCTION     0.02     0.10   261.32     0  01:05
  380704               JUNCTION     0.03     0.14   271.93     0  01:04
  384689               JUNCTION     0.04     0.19   256.00     0  01:10
  385327               JUNCTION     0.02     0.09   261.88     0  01:04
  388708               JUNCTION     0.03     0.13   260.05     0  01:06
  388709               JUNCTION     0.04     0.18   257.46     0  01:10
  389470               JUNCTION     0.03     0.14   268.01     0  01:07
  389482               JUNCTION     0.05     0.23   248.19     0  01:16
  389544               JUNCTION     0.01     0.04   269.43     0  01:04
  389548               JUNCTION     0.00     0.01   274.20     0  00:58
  389612               JUNCTION     0.01     0.04   274.88     0  01:05
  389683               JUNCTION     0.00     0.02   262.20     0  00:57
  389691               JUNCTION     0.00     0.00   264.85     0  00:00
  389837               JUNCTION     0.01     0.04   270.93     0  01:04
  389908               JUNCTION     0.01     0.04   257.48     0  01:04
  389936               JUNCTION     0.00     0.02   255.47     0  01:04
  389999               JUNCTION     0.03     0.12   259.74     0  01:08
  390000               JUNCTION     0.01     0.04   257.69     0  01:04
  390062               JUNCTION     0.01     0.05   275.27     0  01:05
  390070               JUNCTION     0.01     0.04   271.58     0  01:05
  390079               JUNCTION     0.01     0.05   254.78     0  01:07
  390425               JUNCTION     0.04     0.21   252.53     0  01:10
  390522               JUNCTION     0.01     0.07   272.89     0  00:57
  426285               JUNCTION     0.03     0.14   253.46     0  01:10
  h1                   JUNCTION     0.01     0.05   252.96     0  01:13
  h2                   JUNCTION     0.00     0.00   254.18     0  00:00
  out1                 OUTFALL      0.08     0.36   241.86     0  01:18
  SU2                  STORAGE      0.07     0.13   271.13     0  01:05
  SU1                  STORAGE      0.05     0.17   257.57     0  01:10
  
  
  *******************
  Node Inflow Summary
  *******************
  
  -------------------------------------------------------------------------------------
                                  Maximum  Maximum                  Lateral       Total
                                  Lateral    Total  Time of Max      Inflow      Inflow
                                   Inflow   Inflow   Occurrence      Volume      Volume
  Node                 Type           LPS      LPS  days hr:min    10^6 ltr    10^6 ltr
  -------------------------------------------------------------------------------------
  79                   JUNCTION      0.15   239.54     0  01:09       0.000       0.671
  203259               JUNCTION      4.39     7.20     0  01:04       0.011       0.020
  228512               JUNCTION      6.09   248.23     0  01:10       0.017       0.702
  286796               JUNCTION      5.75    97.34     0  01:07       0.014       0.263
  286798               JUNCTION      0.62   268.86     0  01:11       0.001       0.806
  286832               JUNCTION      9.67   587.78     0  01:16       0.039       1.809
  286922               JUNCTION      0.00   581.88     0  01:16       0.000       1.770
  286924               JUNCTION      1.85    21.27     0  01:07       0.004       0.058
  286926               JUNCTION      2.96    18.88     0  01:04       0.007       0.051
  286928               JUNCTION      1.23    16.49     0  01:04       0.003       0.044
  286929               JUNCTION      2.86    13.49     0  01:04       0.007       0.035
  286930               JUNCTION      1.60     9.46     0  01:04       0.004       0.025
  286945               JUNCTION      0.00   269.16     0  01:10       0.000       0.805
  286991               JUNCTION      0.84     7.50     0  01:04       0.002       0.019
  286993               JUNCTION      2.21     2.21     0  01:04       0.005       0.005
  286996               JUNCTION      2.18     7.53     0  01:04       0.005       0.019
  286998               JUNCTION      2.82    53.10     0  01:06       0.006       0.142
  287000               JUNCTION      5.09    16.41     0  01:04       0.013       0.041
  287005               JUNCTION      3.24    12.55     0  01:06       0.008       0.033
  287018               JUNCTION      0.00     6.85     0  01:08       0.000       0.020
  287045               JUNCTION      1.03     1.03     0  00:57       0.002       0.002
  287046               JUNCTION      0.00     2.07     0  01:05       0.000       0.005
  287047               JUNCTION      0.67     0.67     0  00:57       0.001       0.001
  287049               JUNCTION      0.00     2.06     0  01:05       0.000       0.005
  287050               JUNCTION      0.00     2.22     0  00:57       0.000       0.005
  287089               JUNCTION      0.00     9.88     0  01:06       0.000       0.025
  287150               JUNCTION      2.54     9.93     0  01:05       0.006       0.025
  287151               JUNCTION      0.00     7.78     0  01:05       0.000       0.020
  287153               JUNCTION      2.54     5.41     0  01:04       0.006       0.013
  287161               JUNCTION      1.25     3.19     0  00:57       0.002       0.007
  287188               JUNCTION      2.02   182.20     0  01:08       0.005       0.503
  287189               JUNCTION      0.42   180.63     0  01:07       0.001       0.498
  287250               JUNCTION      0.43   155.53     0  01:08       0.001       0.428
  287276               JUNCTION     11.94    11.94     0  01:10       0.045       0.045
  287344               JUNCTION      0.00     2.48     0  00:57       0.000       0.006
  287348               JUNCTION      2.79     4.57     0  00:58       0.006       0.011
  287349               JUNCTION      1.14     2.08     0  00:57       0.002       0.004
  287410               JUNCTION      1.14     1.14     0  00:57       0.002       0.002
  287412               JUNCTION      0.00     0.00     0  00:00       0.000       0.000
  287413               JUNCTION      2.41     8.25     0  01:04       0.006       0.021
  287415               JUNCTION      2.09     4.66     0  01:04       0.005       0.012
  287416               JUNCTION      0.94     2.66     0  01:04       0.002       0.007
  287417               JUNCTION      1.81     1.81     0  01:04       0.004       0.004
  287420               JUNCTION      1.31     1.31     0  00:58       0.003       0.003
  287421               JUNCTION      6.24   144.80     0  01:08       0.015       0.394
  287422               JUNCTION      0.55   119.10     0  01:07       0.001       0.321
  287424               JUNCTION      3.22     7.09     0  01:04       0.008       0.018
  287425               JUNCTION      4.94     6.82     0  01:04       0.012       0.017
  287426               JUNCTION      0.00     2.00     0  00:57       0.000       0.005
  287427               JUNCTION      2.10     2.10     0  00:57       0.005       0.005
  287529               JUNCTION      0.00    66.64     0  01:05       0.000       0.167
  287530               JUNCTION      6.40    66.85     0  01:04       0.015       0.167
  287531               JUNCTION      0.00    27.44     0  01:05       0.000       0.073
  287539               JUNCTION      3.19     3.19     0  01:04       0.008       0.008
  287548               JUNCTION      0.00     0.00     0  00:00       0.000       0.000
  287570               JUNCTION      0.00    32.09     0  01:06       0.000       0.069
  287572               JUNCTION     11.54    32.09     0  01:05       0.026       0.069
  287582               JUNCTION      3.56    11.56     0  01:04       0.009       0.029
  287583               JUNCTION      3.47     6.36     0  01:04       0.008       0.016
  287585               JUNCTION      0.00     3.05     0  01:04       0.000       0.007
  287587               JUNCTION      3.13     3.13     0  01:04       0.007       0.007
  287623               JUNCTION     10.81    22.94     0  01:04       0.026       0.059
  287624               JUNCTION      0.00    12.86     0  01:04       0.000       0.033
  287626               JUNCTION      7.15    13.07     0  01:04       0.017       0.033
  287628               JUNCTION      0.00     6.62     0  00:57       0.000       0.016
  287651               JUNCTION      0.00     2.04     0  00:57       0.000       0.005
  287653               JUNCTION      2.18     2.18     0  00:57       0.005       0.005
  287655               JUNCTION      5.64     8.25     0  01:03       0.013       0.020
  287656               JUNCTION      0.00     2.74     0  01:04       0.000       0.007
  287657               JUNCTION      2.78     2.78     0  01:04       0.007       0.007
  287659               JUNCTION      4.70     4.70     0  01:04       0.012       0.012
  287663               JUNCTION      3.32    15.10     0  01:03       0.008       0.038
  287664               JUNCTION      1.23     7.85     0  01:04       0.003       0.020
  287672               JUNCTION      9.15    21.07     0  01:10       0.035       0.081
  287689               JUNCTION      6.01    27.85     0  01:04       0.014       0.073
  287706               JUNCTION      1.24     1.24     0  00:57       0.002       0.002
  287770               JUNCTION      0.00     0.00     0  00:00       0.000       0.000
  287773               JUNCTION      0.55     0.55     0  00:57       0.001       0.001
  287774               JUNCTION      0.00     0.00     0  00:00       0.000       0.000
  287776               JUNCTION      0.00     0.00     0  00:00       0.000       0.000
  287777               JUNCTION      3.11     3.11     0  01:04       0.007       0.007
  287780               JUNCTION      1.64     1.64     0  00:57       0.003       0.003
  287785               JUNCTION      0.00     3.30     0  01:04       0.000       0.008
  287786               JUNCTION      1.65     1.65     0  00:57       0.003       0.003
  287788               JUNCTION      0.00     1.96     0  01:05       0.000       0.005
  287849               JUNCTION      0.00     2.03     0  00:58       0.000       0.005
  287851               JUNCTION      2.20     2.20     0  00:57       0.005       0.005
  287852               JUNCTION      2.38     4.60     0  01:04       0.005       0.011
  287891               JUNCTION      0.00     2.68     0  01:04       0.000       0.007
  287892               JUNCTION      1.51     3.21     0  00:57       0.003       0.007
  287896               JUNCTION      4.63     4.63     0  01:04       0.012       0.012
  287932               JUNCTION      5.08     8.91     0  01:04       0.011       0.022
  287935               JUNCTION      2.62     9.31     0  01:04       0.006       0.024
  287936               JUNCTION      1.03     1.03     0  00:58       0.002       0.002
  287940               JUNCTION      1.31     1.31     0  00:58       0.003       0.003
  287941               JUNCTION      1.13     1.13     0  00:58       0.003       0.003
  287943               JUNCTION      0.00     2.44     0  01:01       0.000       0.006
  287944               JUNCTION      1.40     1.40     0  00:58       0.003       0.003
  287945               JUNCTION      0.00     0.00     0  00:00       0.000       0.000
  287948               JUNCTION      1.61     5.97     0  01:04       0.004       0.015
  288009               JUNCTION      3.57     8.08     0  01:04       0.008       0.020
  288011               JUNCTION      5.97     5.97     0  01:03       0.014       0.014
  288015               JUNCTION      8.49    17.12     0  01:03       0.020       0.042
  288018               JUNCTION      2.98     2.98     0  01:04       0.008       0.008
  288020               JUNCTION      1.50     1.50     0  01:01       0.004       0.004
  288021               JUNCTION      0.83     0.83     0  00:58       0.002       0.002
  288022               JUNCTION      1.50     1.50     0  01:01       0.004       0.004
  288023               JUNCTION      2.28     2.28     0  00:57       0.005       0.005
  288026               JUNCTION      6.51   589.28     0  01:17       0.015       1.824
  288339               JUNCTION      0.00   100.05     0  01:05       0.000       0.273
  288389               JUNCTION      2.28     2.28     0  00:57       0.005       0.005
  288391               JUNCTION      1.75    10.49     0  01:04       0.004       0.026
  288393               JUNCTION      0.92     7.85     0  01:04       0.002       0.019
  288395               JUNCTION      2.98     2.98     0  00:57       0.007       0.007
  288397               JUNCTION      0.00     3.28     0  00:57       0.000       0.007
  288398               JUNCTION      0.00     2.42     0  00:57       0.000       0.006
  288399               JUNCTION      1.02     1.23     0  00:57       0.002       0.002
  288400               JUNCTION      0.43     8.07     0  01:05       0.001       0.020
  288471               JUNCTION      2.62     2.85     0  00:57       0.006       0.007
  288473               JUNCTION      1.14     3.65     0  01:04       0.002       0.009
  288476               JUNCTION      0.00     0.00     0  00:00       0.000       0.000
  288477               JUNCTION      2.21     4.03     0  01:04       0.005       0.010
  288479               JUNCTION      2.02     7.30     0  01:04       0.004       0.018
  288481               JUNCTION      1.99     5.60     0  01:04       0.004       0.013
  288482               JUNCTION      0.00     5.73     0  01:05       0.000       0.014
  288483               JUNCTION      2.11     5.81     0  01:04       0.005       0.014
  288486               JUNCTION      3.84    17.37     0  01:04       0.008       0.043
  288488               JUNCTION      4.13    44.98     0  01:05       0.009       0.121
  288548               JUNCTION      9.43    18.95     0  01:05       0.026       0.054
  288551               JUNCTION      0.00     9.82     0  01:05       0.000       0.028
  288552               JUNCTION      9.93     9.93     0  01:04       0.028       0.028
  288553               JUNCTION      0.00     0.00     0  00:00       0.000       0.000
  288567               JUNCTION      1.44    22.88     0  01:04       0.003       0.057
  288628               JUNCTION      1.54     4.58     0  01:04       0.003       0.011
  288723               JUNCTION      0.13   201.54     0  01:10       0.000       0.612
  288787               JUNCTION      0.00   104.98     0  01:08       0.000       0.291
  288792               JUNCTION      3.96   105.78     0  01:07       0.010       0.290
  288796               JUNCTION      0.00   102.09     0  01:06       0.000       0.280
  288797               JUNCTION      2.40   102.33     0  01:06       0.007       0.280
  288948               JUNCTION      0.00    11.20     0  01:04       0.000       0.023
  288949               JUNCTION      0.00    11.06     0  01:04       0.000       0.023
  288950               JUNCTION      0.00    11.01     0  01:05       0.000       0.023
  289316               JUNCTION      0.00   277.74     0  01:10       0.000       0.789
  289317               JUNCTION      4.04   280.66     0  01:11       0.010       0.800
  289713               JUNCTION      0.00   268.52     0  01:11       0.000       0.806
  290971               JUNCTION      2.95   128.66     0  01:08       0.007       0.350
  291038               JUNCTION      0.80   120.41     0  01:08       0.001       0.326
  291039               JUNCTION      1.03   120.03     0  01:08       0.002       0.325
  291040               JUNCTION      0.69   119.45     0  01:08       0.001       0.323
  291043               JUNCTION      2.78    11.17     0  01:04       0.006       0.028
  291044               JUNCTION      3.84     8.67     0  01:04       0.009       0.021
  291047               JUNCTION      2.27     5.00     0  01:04       0.005       0.012
  291049               JUNCTION      0.00     2.97     0  01:04       0.000       0.007
  291050               JUNCTION      1.02     3.02     0  01:04       0.002       0.007
  291051               JUNCTION      2.38     2.38     0  00:57       0.005       0.005
  291053               JUNCTION      0.00     0.00     0  00:00       0.000       0.000
  291054               JUNCTION      3.10    64.01     0  01:06       0.007       0.171
  291056               JUNCTION      1.47    28.41     0  01:08       0.003       0.077
  291057               JUNCTION      0.56    26.72     0  01:08       0.001       0.072
  291117               JUNCTION      0.91    17.74     0  01:08       0.002       0.048
  291119               JUNCTION      1.55     1.55     0  00:57       0.003       0.003
  291120               JUNCTION      4.05    15.85     0  01:08       0.010       0.043
  291123               JUNCTION      0.00    12.51     0  01:08       0.000       0.033
  291133               JUNCTION      1.90     7.15     0  01:04       0.005       0.019
  291135               JUNCTION      2.28     5.51     0  01:04       0.005       0.014
  291195               JUNCTION      0.00     3.47     0  01:04       0.000       0.009
  291196               JUNCTION      3.53     3.53     0  01:04       0.009       0.009
  291198               JUNCTION      0.00     0.00     0  00:00       0.000       0.000
  291200               JUNCTION      2.70     2.70     0  01:04       0.007       0.007
  291204               JUNCTION      3.19     3.19     0  01:04       0.008       0.008
  291205               JUNCTION      0.62   187.66     0  01:08       0.001       0.520
  291206               JUNCTION      1.01    30.01     0  01:07       0.002       0.083
  291207               JUNCTION      1.86   224.75     0  01:09       0.004       0.627
  291209               JUNCTION      4.57     4.57     0  01:04       0.012       0.012
  291273               JUNCTION      6.20    71.32     0  01:05       0.014       0.182
  291275               JUNCTION      0.43   144.93     0  01:08       0.001       0.394
  291276               JUNCTION      0.00    16.35     0  01:05       0.000       0.042
  291277               JUNCTION      5.55    16.35     0  01:05       0.014       0.042
  291278               JUNCTION      0.00    11.10     0  01:05       0.000       0.028
  291282               JUNCTION      1.35     5.41     0  01:04       0.003       0.014
  291286               JUNCTION      0.00     0.00     0  00:00       0.000       0.000
  291287               JUNCTION      5.29    34.34     0  01:07       0.013       0.096
  291290               JUNCTION      0.00   184.60     0  01:08       0.000       0.510
  291292               JUNCTION      0.83     2.74     0  01:04       0.002       0.007
  291352               JUNCTION      2.01     2.01     0  01:04       0.005       0.005
  291358               JUNCTION      3.95     3.95     0  01:04       0.010       0.010
  291359               JUNCTION      0.00     3.90     0  01:04       0.000       0.010
  291361               JUNCTION      4.55   239.29     0  01:09       0.011       0.672
  291366               JUNCTION      1.61     8.49     0  01:04       0.004       0.023
  291368               JUNCTION      0.00   560.88     0  01:12       0.000       1.648
  291370               JUNCTION      4.00     4.00     0  01:03       0.008       0.008
  291371               JUNCTION      0.00     3.95     0  01:03       0.000       0.008
  291433               JUNCTION      0.00   547.50     0  01:12       0.000       1.606
  291443               JUNCTION      0.00   280.64     0  01:11       0.000       0.800
  291446               JUNCTION      1.11   243.56     0  01:10       0.002       0.686
  291448               JUNCTION      0.32   221.69     0  01:09       0.001       0.616
  291450               JUNCTION      0.00    23.63     0  01:08       0.000       0.063
  291500               JUNCTION      0.00   548.46     0  01:11       0.000       1.606
  291509               JUNCTION      2.48     2.48     0  00:57       0.006       0.006
  291510               JUNCTION      7.46    23.67     0  01:07       0.021       0.063
  291526               JUNCTION      0.00    16.29     0  01:06       0.000       0.042
  291528               JUNCTION      6.79     6.79     0  00:57       0.016       0.016
  291668               JUNCTION      0.00   557.85     0  01:14       0.000       1.648
  372646               JUNCTION      0.00    10.93     0  00:57       0.000       0.021
  375328               JUNCTION      0.00    21.09     0  01:05       0.000       0.043
  375329               JUNCTION      0.00    10.38     0  00:58       0.000       0.021
  375330               JUNCTION      0.00    10.68     0  00:57       0.000       0.021
  376001               JUNCTION     21.43    21.43     0  00:57       0.056       0.056
  376062               JUNCTION      0.00     0.00     0  00:00       0.000       0.000
  376063               JUNCTION      0.00    59.24     0  01:04       0.000       0.165
  376065               JUNCTION      0.00    41.14     0  01:04       0.000       0.147
  376070               JUNCTION      3.53    44.19     0  01:05       0.007       0.154
  378688               JUNCTION     11.29    11.29     0  01:04       0.023       0.023
  379563               JUNCTION      0.00    39.28     0  01:04       0.000       0.109
  379567               JUNCTION     39.55    39.55     0  01:04       0.109       0.109
  380358               JUNCTION      0.00    34.36     0  01:04       0.000       0.080
  380359               JUNCTION     34.47    34.47     0  01:04       0.080       0.080
  380441               JUNCTION      0.00   103.21     0  01:06       0.000       0.322
  380595               JUNCTION      0.00     0.00     0  00:00       0.000       0.000
  380597               JUNCTION      0.00    59.06     0  01:05       0.000       0.165
  380599               JUNCTION      0.00    39.08     0  01:04       0.000       0.109
  380704               JUNCTION     69.45    69.45     0  01:04       0.204       0.204
  384689               JUNCTION      5.89   269.77     0  01:09       0.012       0.805
  385327               JUNCTION     41.14    41.14     0  01:04       0.147       0.147
  388708               JUNCTION      1.21   103.90     0  01:05       0.003       0.321
  388709               JUNCTION      0.00   201.59     0  01:09       0.000       0.612
  389470               JUNCTION      4.52   116.20     0  01:07       0.009       0.313
  389482               JUNCTION     13.30   565.94     0  01:15       0.043       1.690
  389544               JUNCTION      3.79     3.79     0  01:04       0.009       0.009
  389548               JUNCTION      0.00     0.59     0  00:57       0.000       0.001
  389612               JUNCTION      2.79     7.88     0  01:04       0.006       0.020
  389683               JUNCTION      2.54     2.54     0  00:57       0.006       0.006
  389691               JUNCTION      0.00     0.00     0  00:00       0.000       0.000
  389837               JUNCTION      3.33     3.33     0  01:04       0.008       0.008
  389908               JUNCTION      2.19     4.31     0  01:01       0.005       0.011
  389936               JUNCTION      0.00     4.54     0  01:04       0.000       0.012
  389999               JUNCTION      0.00   151.28     0  01:08       0.000       0.415
  390000               JUNCTION      3.55     3.55     0  01:04       0.009       0.009
  390062               JUNCTION      1.55     7.30     0  01:04       0.003       0.018
  390070               JUNCTION      4.12     4.12     0  01:04       0.010       0.010
  390079               JUNCTION      0.00    16.33     0  01:07       0.000       0.042
  390425               JUNCTION      1.99   271.95     0  01:10       0.005       0.770
  390522               JUNCTION     11.03    11.03     0  00:57       0.021       0.021
  426285               JUNCTION      0.00   243.45     0  01:10       0.000       0.686
  h1                   JUNCTION      0.00     5.93     0  01:12       0.000       0.020
  h2                   JUNCTION      0.00     0.00     0  00:00       0.000       0.000
  out1                 OUTFALL       0.00   589.61     0  01:18       0.000       1.823
  SU2                  STORAGE       0.00    69.17     0  01:04       0.000       0.204
  SU1                  STORAGE       0.00   102.97     0  01:07       0.000       0.321
  
  
  **********************
  Node Surcharge Summary
  **********************
  
  No nodes were surcharged.
  
  
  *********************
  Node Flooding Summary
  *********************
  
  No nodes were flooded.
  
  
  **********************
  Storage Volume Summary
  **********************
  
  --------------------------------------------------------------------------------------------
                         Average     Avg   E&I       Maximum     Max    Time of Max    Maximum
                          Volume    Pcnt  Pcnt        Volume    Pcnt     Occurrence    Outflow
  Storage Unit           1000 m3    Full  Loss       1000 m3    Full    days hr:min        LPS
  --------------------------------------------------------------------------------------------
  SU2                      0.001       0     0         0.002       0       0  01:05      68.43
  SU1                      0.001       0     0         0.013       3       0  01:10      97.56
  
  
  ***********************
  Outfall Loading Summary
  ***********************
  
  -----------------------------------------------------------
                        Flow       Avg.      Max.       Total
                        Freq.      Flow      Flow      Volume
  Outfall Node          Pcnt.       LPS       LPS    10^6 ltr
  -----------------------------------------------------------
  out1                  97.42     64.19    589.61       1.823
  -----------------------------------------------------------
  System                97.42     64.19    589.61       1.823
  
  
  ********************
  Link Flow Summary
  ********************
  
  -----------------------------------------------------------------------------
                                 Maximum  Time of Max   Maximum    Max/    Max/
                                  |Flow|   Occurrence   |Veloc|    Full    Full
  Link                 Type          LPS  days hr:min     m/sec    Flow   Depth
  -----------------------------------------------------------------------------
  1                    CONDUIT    556.26     0  01:15      2.14    0.10    0.18
  2                    CONDUIT    564.58     0  01:16      2.87    0.05    0.17
  4                    CONDUIT    557.85     0  01:14      1.71    0.09    0.21
  5                    CONDUIT      5.56     0  01:03      0.70    0.05    0.17
  6                    CONDUIT    547.42     0  01:13      1.67    0.11    0.21
  7                    CONDUIT      3.38     0  01:04      0.49    0.03    0.15
  8                    CONDUIT    579.99     0  01:17      2.19    0.07    0.21
  9_M1                 CONDUIT    586.62     0  01:17      1.87    0.12    0.23
  10                   CONDUIT     20.98     0  01:10      0.91    0.04    0.41
  11                   CONDUIT    268.63     0  01:11      2.27    0.03    0.10
  12_M2                CONDUIT    269.16     0  01:10      2.41    0.05    0.16
  13                   CONDUIT     70.66     0  01:06      1.08    0.02    0.14
  14                   CONDUIT     66.15     0  01:05      1.56    0.02    0.10
  16                   CONDUIT      2.10     0  00:58      0.49    0.03    0.11
  17                   CONDUIT      3.09     0  01:05      0.56    0.03    0.13
  18                   CONDUIT      7.18     0  01:05      0.97    0.03    0.11
  20                   CONDUIT      0.00     0  00:00      0.00    0.00    0.09
  21                   CONDUIT     10.41     0  01:05      0.84    0.02    0.11
  22                   CONDUIT      3.55     0  01:05      0.48    0.03    0.16
  23                   CONDUIT      3.00     0  01:05      0.53    0.01    0.09
  24                   CONDUIT      5.23     0  01:05      0.72    0.02    0.11
  25                   CONDUIT      9.88     0  01:06      0.84    0.02    0.11
  26                   CONDUIT      2.04     0  01:06      0.56    0.01    0.10
  27                   CONDUIT      8.04     0  01:05      0.82    0.04    0.13
  28                   CONDUIT      3.91     0  01:05      0.72    0.03    0.13
  29                   CONDUIT      0.00     0  00:00      0.00    0.00    0.06
  30                   CONDUIT      9.75     0  01:06      0.69    0.04    0.17
  31                   CONDUIT     18.88     0  01:07      0.98    0.09    0.21
  32                   CONDUIT     22.69     0  01:06      0.88    0.02    0.10
  33                   CONDUIT      0.00     0  00:00      0.00    0.00    0.06
  34                   CONDUIT      5.50     0  01:04      0.84    0.02    0.10
  35                   CONDUIT      9.78     0  01:08      0.64    0.03    0.13
  36                   CONDUIT     12.42     0  01:09      1.07    0.02    0.09
  37                   CONDUIT      3.94     0  01:05      0.57    0.02    0.10
  38                   CONDUIT      3.42     0  01:05      0.31    0.03    0.22
  39                   CONDUIT      3.02     0  01:04      0.42    0.02    0.21
  40                   CONDUIT     52.94     0  01:07      1.29    0.03    0.14
  41                   CONDUIT      4.08     0  01:05      0.60    0.02    0.10
  42                   CONDUIT      8.73     0  01:04      0.55    0.03    0.21
  43                   CONDUIT      3.20     0  01:05      0.47    0.03    0.15
  44                   CONDUIT      7.75     0  01:05      0.65    0.04    0.15
  46                   CONDUIT     16.14     0  01:05      0.64    0.06    0.26
  47                   CONDUIT     63.91     0  01:07      1.33    0.05    0.15
  48                   CONDUIT      0.43     0  00:57      0.28    0.00    0.05
  49                   CONDUIT      1.06     0  00:57      0.34    0.01    0.15
  50                   CONDUIT      0.00     0  00:00      0.00    0.00    0.04
  51                   CONDUIT      0.00     0  00:00      0.00    0.00    0.04
  52                   CONDUIT      0.00     0  00:00      0.00    0.00    0.04
  53                   CONDUIT      3.05     0  01:04      0.99    0.02    0.09
  54                   CONDUIT      2.04     0  00:57      0.94    0.01    0.07
  55                   CONDUIT      1.92     0  01:05      0.41    0.01    0.12
  56                   CONDUIT      2.97     0  01:05      0.55    0.02    0.13
  57                   CONDUIT     11.41     0  01:05      0.62    0.04    0.21
  58                   CONDUIT    119.07     0  01:08      2.42    0.03    0.11
  59                   CONDUIT    119.44     0  01:08      2.48    0.03    0.11
  61                   CONDUIT      4.55     0  01:04      0.55    0.03    0.24
  62                   CONDUIT     99.99     0  01:06      2.21    0.05    0.15
  63                   CONDUIT    101.84     0  01:07      2.16    0.05    0.15
  64                   CONDUIT    102.09     0  01:06      2.30    0.04    0.14
  66                   CONDUIT      2.03     0  00:58      0.70    0.02    0.09
  67                   CONDUIT      4.90     0  01:05      0.75    0.02    0.10
  68                   CONDUIT    104.98     0  01:08      1.97    0.05    0.16
  69                   CONDUIT    104.39     0  01:09      1.31    0.04    0.16
  72_M3                CONDUIT    280.45     0  01:11      1.83    0.07    0.19
  73                   CONDUIT     16.29     0  01:06      0.66    0.03    0.18
  74                   CONDUIT     11.10     0  01:05      1.34    0.04    0.12
  76                   CONDUIT    103.21     0  01:06      1.95    0.03    0.12
  77                   CONDUIT      0.00     0  00:00      0.00    0.00    0.06
  78                   CONDUIT     40.94     0  01:05      1.22    0.02    0.09
  79                   CONDUIT     44.02     0  01:06      0.99    0.02    0.11
  80                   CONDUIT     22.52     0  01:05      0.64    0.01    0.09
  81                   CONDUIT     12.69     0  01:05      0.80    0.00    0.05
  82                   CONDUIT     12.86     0  01:04      1.22    0.00    0.04
  83                   CONDUIT      6.33     0  00:58      0.86    0.00    0.03
  86                   CONDUIT      2.18     0  01:04      0.62    0.01    0.15
  87                   CONDUIT      1.47     0  01:01      0.35    0.01    0.15
  89                   CONDUIT      2.91     0  01:04      0.55    0.03    0.13
  91                   CONDUIT     16.15     0  01:04      0.78    0.03    0.13
  92                   CONDUIT     18.59     0  01:05      0.80    0.04    0.14
  93                   CONDUIT     21.01     0  01:08      0.67    0.02    0.11
  94                   CONDUIT      3.40     0  01:04      0.73    0.03    0.12
  95                   CONDUIT      5.36     0  01:05      0.48    0.07    0.21
  96                   CONDUIT      3.40     0  01:04      0.52    0.03    0.15
  97                   CONDUIT      0.00     0  00:00      0.00    0.00    0.05
  100                  CONDUIT      0.00     0  00:00      0.00    0.00    0.05
  101                  CONDUIT     29.70     0  01:08      0.93    0.03    0.11
  103                  CONDUIT     33.85     0  01:08      0.56    0.03    0.18
  104                  CONDUIT    224.47     0  01:09      1.38    0.09    0.26
  106                  CONDUIT      2.37     0  01:04      0.67    0.01    0.07
  107                  CONDUIT      0.00     0  00:00      0.00    0.00    0.03
  108                  CONDUIT    155.47     0  01:08      1.98    0.04    0.16
  109                  CONDUIT      2.58     0  01:04      0.70    0.02    0.10
  110                  CONDUIT      4.58     0  01:04      1.23    0.02    0.10
  112                  CONDUIT      6.91     0  01:05      0.81    0.03    0.12
  114                  CONDUIT      1.54     0  00:57      0.44    0.01    0.13
  116                  CONDUIT      2.71     0  01:04      0.70    0.01    0.31
  117                  CONDUIT      0.00     0  00:00      0.00    0.00    0.05
  118                  CONDUIT      3.15     0  01:04      0.63    0.01    0.34
  119                  CONDUIT      2.68     0  01:04      1.16    0.01    0.07
  120                  CONDUIT      2.66     0  01:04      0.66    0.01    0.37
  123                  CONDUIT      5.82     0  01:04      0.68    0.02    0.12
  124                  CONDUIT      0.00     0  00:00      0.00    0.00    0.06
  125                  CONDUIT      1.23     0  01:04      0.33    0.01    0.18
  126                  CONDUIT    547.50     0  01:12      1.99    0.05    0.19
  127                  CONDUIT      5.35     0  01:04      0.70    0.01    0.16
  128                  CONDUIT    120.81     0  01:10      1.52    0.03    0.12
  129                  CONDUIT    122.54     0  01:10      1.54    0.03    0.12
  130                  CONDUIT    248.15     0  01:10      2.58    0.05    0.18
  131                  CONDUIT    239.50     0  01:09      1.49    0.14    0.20
  132                  CONDUIT    239.49     0  01:10      2.04    0.04    0.16
  133                  CONDUIT      0.00     0  00:00      0.00    0.00    0.01
  134                  CONDUIT     10.93     0  00:57      1.04    0.17    0.27
  135                  CONDUIT    201.52     0  01:10      2.12    0.07    0.18
  136                  CONDUIT    201.33     0  01:10      1.86    0.05    0.15
  137                  CONDUIT      1.06     0  01:01      0.46    0.01    0.08
  138                  CONDUIT     41.14     0  01:04      1.16    0.02    0.09
  139                  CONDUIT     39.08     0  01:04      1.35    0.10    0.20
  311035               CONDUIT      3.47     0  01:04      0.81    0.02    0.11
  311047               CONDUIT      3.95     0  01:03      0.85    0.03    0.12
  311093               CONDUIT      8.38     0  01:07      1.18    0.05    0.16
  311121               CONDUIT      6.62     0  00:57      1.01    0.00    0.03
  311138               CONDUIT      7.78     0  01:05      0.72    0.02    0.10
  311142               CONDUIT     12.51     0  01:08      0.75    0.03    0.11
  311184               CONDUIT      3.28     0  01:05      0.61    0.02    0.09
  311202               CONDUIT    589.61     0  01:18      1.83    0.12    0.24
  311237               CONDUIT     27.44     0  01:05      0.80    0.07    0.09
  311264               CONDUIT    182.18     0  01:08      2.20    0.05    0.16
  311265               CONDUIT    184.52     0  01:08      2.00    0.06    0.18
  311266               CONDUIT    187.77     0  01:09      1.82    0.07    0.19
  311268               CONDUIT    221.48     0  01:09      1.95    0.09    0.20
  311298               CONDUIT      2.97     0  01:04      0.88    0.02    0.10
  311299               CONDUIT      2.94     0  01:05      0.63    0.01    0.08
  311302               CONDUIT      8.54     0  01:05      0.95    0.03    0.12
  311304               CONDUIT     27.42     0  01:06      0.98    0.01    0.08
  311325               CONDUIT      1.46     0  01:08      0.43    0.01    0.14
  311357               CONDUIT      4.69     0  01:04      0.95    0.01    0.25
  311474               CONDUIT      2.48     0  00:57      0.97    0.01    0.05
  311476               CONDUIT      4.52     0  01:04      0.71    0.01    0.10
  311479               CONDUIT      1.00     0  00:57      0.43    0.01    0.07
  311480               CONDUIT      1.95     0  00:58      0.67    0.02    0.09
  311481               CONDUIT      4.48     0  00:58      0.90    0.01    0.34
  311536               CONDUIT      0.00     0  00:00      0.00    0.00    0.04
  311537               CONDUIT      2.00     0  00:57      1.04    0.01    0.06
  311548               CONDUIT      7.38     0  01:04      0.60    0.02    0.11
  311549               CONDUIT      9.31     0  01:04      0.64    0.03    0.13
  311550               CONDUIT     13.22     0  01:04      0.79    0.04    0.14
  311562               CONDUIT      0.00     0  00:00      0.00    0.00    0.23
  311563               CONDUIT      2.22     0  00:57      0.73    0.01    0.09
  311564               CONDUIT      2.07     0  01:05      0.51    0.02    0.11
  311565               CONDUIT      2.06     0  01:05      0.51    0.03    0.11
  311584               CONDUIT     17.66     0  01:08      0.87    0.01    0.08
  311625               CONDUIT     17.21     0  01:05      1.01    0.02    0.11
  311628               CONDUIT     44.82     0  01:07      1.38    0.03    0.12
  311629               CONDUIT      0.00     0  00:00      0.00    0.00    0.00
  311648               CONDUIT      1.98     0  00:58      0.48    0.01    0.21
  311654               CONDUIT      1.79     0  01:04      0.64    0.01    0.08
  311658               CONDUIT      8.19     0  01:04      0.63    0.02    0.35
[...]
  OCT-22-2014 04:02:00      3.140     0.000     0.033   241.693
  OCT-22-2014 04:04:00      3.190     0.000     0.033   241.693
  OCT-22-2014 04:06:00      3.243     0.000     0.033   241.693
  OCT-22-2014 04:08:00      3.296     0.000     0.033   241.693
  OCT-22-2014 04:10:00      3.346     0.000     0.033   241.693
  OCT-22-2014 04:12:00      3.396     0.000     0.033   241.693
  OCT-22-2014 04:14:00      3.439     0.000     0.034   241.694
  OCT-22-2014 04:16:00      3.474     0.000     0.034   241.694
  OCT-22-2014 04:18:00      3.500     0.000     0.034   241.694
  OCT-22-2014 04:20:00      3.515     0.000     0.034   241.694
  OCT-22-2014 04:22:00      3.520     0.000     0.034   241.694
  OCT-22-2014 04:24:00      3.514     0.000     0.034   241.694
  OCT-22-2014 04:26:00      3.499     0.000     0.034   241.694
  OCT-22-2014 04:28:00      3.475     0.000     0.034   241.694
  OCT-22-2014 04:30:00      3.444     0.000     0.034   241.694
  OCT-22-2014 04:32:00      3.406     0.000     0.034   241.694
  OCT-22-2014 04:34:00      3.362     0.000     0.034   241.694
  OCT-22-2014 04:36:00      3.317     0.000     0.034   241.694
  OCT-22-2014 04:38:00      3.267     0.000     0.034   241.694
  OCT-22-2014 04:40:00      3.213     0.000     0.033   241.693
  OCT-22-2014 04:42:00      3.156     0.000     0.033   241.693
  OCT-22-2014 04:44:00      3.096     0.000     0.033   241.693
  OCT-22-2014 04:46:00      3.034     0.000     0.033   241.693
  OCT-22-2014 04:48:00      2.970     0.000     0.033   241.693
  OCT-22-2014 04:50:00      2.906     0.000     0.032   241.692
  OCT-22-2014 04:52:00      2.841     0.000     0.032   241.692
  OCT-22-2014 04:54:00      2.775     0.000     0.032   241.692
  OCT-22-2014 04:56:00      2.710     0.000     0.031   241.691
  OCT-22-2014 04:58:00      2.645     0.000     0.031   241.691
  OCT-22-2014 05:00:00      2.581     0.000     0.031   241.691
  OCT-22-2014 05:02:00      2.517     0.000     0.030   241.690
  OCT-22-2014 05:04:00      2.454     0.000     0.030   241.690
  OCT-22-2014 05:06:00      2.391     0.000     0.030   241.690
  OCT-22-2014 05:08:00      2.330     0.000     0.030   241.690
  OCT-22-2014 05:10:00      2.271     0.000     0.029   241.689
  OCT-22-2014 05:12:00      2.212     0.000     0.029   241.689
  OCT-22-2014 05:14:00      2.154     0.000     0.029   241.689
  OCT-22-2014 05:16:00      2.098     0.000     0.028   241.688
  OCT-22-2014 05:18:00      2.043     0.000     0.028   241.688
  OCT-22-2014 05:20:00      1.990     0.000     0.028   241.688
  OCT-22-2014 05:22:00      1.937     0.000     0.027   241.687
  OCT-22-2014 05:24:00      1.887     0.000     0.027   241.687
  OCT-22-2014 05:26:00      1.837     0.000     0.027   241.687
  OCT-22-2014 05:28:00      1.789     0.000     0.026   241.686
  OCT-22-2014 05:30:00      1.742     0.000     0.026   241.686
  OCT-22-2014 05:32:00      1.696     0.000     0.026   241.686
  OCT-22-2014 05:34:00      1.652     0.000     0.025   241.685
  OCT-22-2014 05:36:00      1.609     0.000     0.025   241.685
  OCT-22-2014 05:38:00      1.567     0.000     0.025   241.685
  OCT-22-2014 05:40:00      1.526     0.000     0.024   241.684
  OCT-22-2014 05:42:00      1.486     0.000     0.024   241.684
  OCT-22-2014 05:44:00      1.448     0.000     0.024   241.684
  OCT-22-2014 05:46:00      1.411     0.000     0.023   241.683
  OCT-22-2014 05:48:00      1.374     0.000     0.023   241.683
  OCT-22-2014 05:50:00      1.339     0.000     0.023   241.683
  OCT-22-2014 05:52:00      1.305     0.000     0.023   241.683
  OCT-22-2014 05:54:00      1.272     0.000     0.022   241.682
  OCT-22-2014 05:56:00      1.240     0.000     0.022   241.682
  OCT-22-2014 05:58:00      1.209     0.000     0.022   241.682
  OCT-22-2014 06:00:00      1.178     0.000     0.021   241.681
  OCT-22-2014 06:02:00      1.149     0.000     0.021   241.681
  
  
  ************
  Link Results
  ************
  
  <<< Link 9_M1 >>>
  -------------------------------------------------------------
                             Flow  Velocity     Depth   Percent
  Date        Time            LPS     m/sec    meters      Full
  -------------------------------------------------------------
  OCT-21-2014 21:56:00      0.005     0.000     0.001       0.0
  OCT-21-2014 21:58:00      0.002     0.000     0.000       0.0
  OCT-21-2014 22:00:00      0.004     0.000     0.000       0.0
  OCT-21-2014 22:02:00      0.007     0.000     0.001       0.0
  OCT-21-2014 22:04:00      0.018     0.000     0.001       0.1
  OCT-21-2014 22:06:00      0.027     0.000     0.002       0.1
  OCT-21-2014 22:08:00      0.062     0.103     0.003       0.2
  OCT-21-2014 22:10:00      0.171     0.119     0.008       0.5
  OCT-21-2014 22:12:00      0.346     0.152     0.011       0.7
  OCT-21-2014 22:14:00      0.590     0.192     0.014       0.9
  OCT-21-2014 22:16:00      0.888     0.233     0.017       1.1
  OCT-21-2014 22:18:00      1.209     0.268     0.019       1.3
  OCT-21-2014 22:20:00      1.507     0.293     0.021       1.4
  OCT-21-2014 22:22:00      1.778     0.309     0.023       1.5
  OCT-21-2014 22:24:00      2.033     0.320     0.025       1.6
  OCT-21-2014 22:26:00      2.285     0.330     0.026       1.8
  OCT-21-2014 22:28:00      2.544     0.340     0.028       1.9
  OCT-21-2014 22:30:00      2.850     0.355     0.029       2.0
  OCT-21-2014 22:32:00      3.465     0.384     0.032       2.1
  OCT-21-2014 22:34:00      5.260     0.460     0.037       2.5
  OCT-21-2014 22:36:00     10.853     0.616     0.049       3.3
  OCT-21-2014 22:38:00     26.156     0.832     0.072       4.8
  OCT-21-2014 22:40:00     51.024     0.999     0.100       6.7
  OCT-21-2014 22:42:00     74.539     1.072     0.124       8.3
  OCT-21-2014 22:44:00     91.377     1.103     0.139       9.3
  OCT-21-2014 22:46:00    106.503     1.142     0.151      10.1
  OCT-21-2014 22:48:00    127.580     1.202     0.165      11.0
  OCT-21-2014 22:50:00    157.788     1.281     0.183      12.2
  OCT-21-2014 22:52:00    195.837     1.364     0.203      13.6
  OCT-21-2014 22:54:00    231.914     1.427     0.221      14.8
  OCT-21-2014 22:56:00    262.821     1.476     0.236      15.7
  OCT-21-2014 22:58:00    291.524     1.520     0.248      16.5
  OCT-21-2014 23:00:00    321.423     1.564     0.260      17.4
  OCT-21-2014 23:02:00    363.029     1.622     0.276      18.4
  OCT-21-2014 23:04:00    422.938     1.698     0.298      19.9
  OCT-21-2014 23:06:00    491.307     1.773     0.321      21.4
  OCT-21-2014 23:08:00    547.029     1.830     0.338      22.6
  OCT-21-2014 23:10:00    578.489     1.860     0.348      23.2
  OCT-21-2014 23:12:00    586.387     1.867     0.350      23.4
  OCT-21-2014 23:14:00    575.473     1.853     0.348      23.2
  OCT-21-2014 23:16:00    547.737     1.819     0.340      22.7
  OCT-21-2014 23:18:00    508.240     1.775     0.328      21.9
  OCT-21-2014 23:20:00    462.834     1.722     0.314      20.9
  OCT-21-2014 23:22:00    417.773     1.669     0.299      19.9
  OCT-21-2014 23:24:00    375.603     1.615     0.284      18.9
  OCT-21-2014 23:26:00    338.422     1.567     0.270      18.0
  OCT-21-2014 23:28:00    306.508     1.520     0.257      17.1
  OCT-21-2014 23:30:00    279.562     1.481     0.246      16.4
  OCT-21-2014 23:32:00    257.996     1.449     0.236      15.7
  OCT-21-2014 23:34:00    242.286     1.424     0.228      15.2
  OCT-21-2014 23:36:00    231.952     1.410     0.223      14.9
  OCT-21-2014 23:38:00    225.001     1.400     0.220      14.6
  OCT-21-2014 23:40:00    219.551     1.392     0.217      14.5
  OCT-21-2014 23:42:00    213.550     1.381     0.214      14.3
  OCT-21-2014 23:44:00    206.387     1.367     0.211      14.0
  OCT-21-2014 23:46:00    198.824     1.350     0.207      13.8
  OCT-21-2014 23:48:00    192.168     1.337     0.204      13.6
  OCT-21-2014 23:50:00    187.084     1.327     0.201      13.4
  OCT-21-2014 23:52:00    183.224     1.319     0.199      13.2
  OCT-21-2014 23:54:00    179.348     1.311     0.197      13.1
  OCT-21-2014 23:56:00    174.061     1.297     0.194      12.9
  OCT-21-2014 23:58:00    166.680     1.278     0.190      12.7
  OCT-22-2014 00:00:00    157.547     1.255     0.185      12.4
  OCT-22-2014 00:02:00    147.274     1.229     0.180      12.0
  OCT-22-2014 00:04:00    136.120     1.196     0.173      11.5
  OCT-22-2014 00:06:00    124.797     1.161     0.166      11.1
  OCT-22-2014 00:08:00    113.945     1.128     0.160      10.6
  OCT-22-2014 00:10:00    104.147     1.098     0.153      10.2
  OCT-22-2014 00:12:00     95.506     1.070     0.147       9.8
  OCT-22-2014 00:14:00     87.570     1.040     0.141       9.4
  OCT-22-2014 00:16:00     80.312     1.013     0.135       9.0
  OCT-22-2014 00:18:00     73.671     0.987     0.130       8.7
  OCT-22-2014 00:20:00     67.619     0.962     0.125       8.3
  OCT-22-2014 00:22:00     62.371     0.942     0.120       8.0
  OCT-22-2014 00:24:00     57.652     0.917     0.116       7.7
  OCT-22-2014 00:26:00     53.433     0.895     0.112       7.4
  OCT-22-2014 00:28:00     49.578     0.875     0.108       7.2
  OCT-22-2014 00:30:00     46.065     0.856     0.104       6.9
  OCT-22-2014 00:32:00     42.895     0.839     0.100       6.7
  OCT-22-2014 00:34:00     40.075     0.823     0.097       6.5
  OCT-22-2014 00:36:00     37.596     0.808     0.094       6.3
  OCT-22-2014 00:38:00     35.442     0.795     0.092       6.1
  OCT-22-2014 00:40:00     33.595     0.784     0.089       6.0
  OCT-22-2014 00:42:00     31.878     0.770     0.087       5.8
  OCT-22-2014 00:44:00     30.309     0.757     0.085       5.7
  OCT-22-2014 00:46:00     28.877     0.745     0.083       5.5
  OCT-22-2014 00:48:00     27.607     0.735     0.081       5.4
  OCT-22-2014 00:50:00     26.707     0.727     0.080       5.3
  OCT-22-2014 00:52:00     26.579     0.727     0.080       5.3
  OCT-22-2014 00:54:00     27.031     0.732     0.080       5.4
  OCT-22-2014 00:56:00     27.605     0.738     0.081       5.4
  OCT-22-2014 00:58:00     27.822     0.739     0.081       5.4
  OCT-22-2014 01:00:00     27.625     0.736     0.081       5.4
  OCT-22-2014 01:02:00     27.197     0.732     0.081       5.4
  OCT-22-2014 01:04:00     26.750     0.728     0.080       5.3
  OCT-22-2014 01:06:00     26.449     0.727     0.080       5.3
  OCT-22-2014 01:08:00     26.428     0.729     0.079       5.3
  OCT-22-2014 01:10:00     26.817     0.736     0.080       5.3
  OCT-22-2014 01:12:00     27.737     0.748     0.081       5.4
  OCT-22-2014 01:14:00     29.233     0.765     0.082       5.5
  OCT-22-2014 01:16:00     31.207     0.785     0.085       5.6
  OCT-22-2014 01:18:00     33.487     0.804     0.088       5.8
  OCT-22-2014 01:20:00     35.846     0.822     0.091       6.0
  OCT-22-2014 01:22:00     38.020     0.834     0.093       6.2
  OCT-22-2014 01:24:00     39.375     0.839     0.095       6.3
  OCT-22-2014 01:26:00     39.978     0.839     0.096       6.4
  OCT-22-2014 01:28:00     39.893     0.835     0.096       6.4
  OCT-22-2014 01:30:00     39.240     0.828     0.096       6.4
  OCT-22-2014 01:32:00     38.168     0.819     0.094       6.3
  OCT-22-2014 01:34:00     36.828     0.808     0.093       6.2
  OCT-22-2014 01:36:00     35.361     0.798     0.091       6.1
  OCT-22-2014 01:38:00     33.835     0.787     0.090       6.0
  OCT-22-2014 01:40:00     32.229     0.773     0.088       5.8
  OCT-22-2014 01:42:00     30.614     0.759     0.086       5.7
  OCT-22-2014 01:44:00     29.037     0.746     0.083       5.6
  OCT-22-2014 01:46:00     27.523     0.732     0.081       5.4
  OCT-22-2014 01:48:00     26.094     0.720     0.079       5.3
  OCT-22-2014 01:50:00     24.759     0.708     0.077       5.2
  OCT-22-2014 01:52:00     23.535     0.697     0.075       5.0
  OCT-22-2014 01:54:00     22.389     0.686     0.074       4.9
  OCT-22-2014 01:56:00     21.306     0.676     0.072       4.8
  OCT-22-2014 01:58:00     20.280     0.666     0.070       4.7
  OCT-22-2014 02:00:00     19.309     0.656     0.069       4.6
  OCT-22-2014 02:02:00     18.389     0.647     0.067       4.5
  OCT-22-2014 02:04:00     17.521     0.637     0.066       4.4
  OCT-22-2014 02:06:00     16.704     0.629     0.064       4.3
  OCT-22-2014 02:08:00     15.933     0.620     0.063       4.2
  OCT-22-2014 02:10:00     15.205     0.612     0.062       4.1
  OCT-22-2014 02:12:00     14.551     0.605     0.061       4.0
  OCT-22-2014 02:14:00     13.922     0.598     0.059       4.0
  OCT-22-2014 02:16:00     13.319     0.588     0.058       3.9
  OCT-22-2014 02:18:00     12.745     0.579     0.057       3.8
  OCT-22-2014 02:20:00     12.199     0.571     0.056       3.7
  OCT-22-2014 02:22:00     11.682     0.562     0.055       3.7
  OCT-22-2014 02:24:00     11.193     0.553     0.054       3.6
  OCT-22-2014 02:26:00     10.731     0.545     0.053       3.5
  OCT-22-2014 02:28:00     10.295     0.537     0.052       3.5
  OCT-22-2014 02:30:00      9.882     0.529     0.051       3.4
  OCT-22-2014 02:32:00      9.491     0.522     0.050       3.3
  OCT-22-2014 02:34:00      9.125     0.515     0.049       3.3
  OCT-22-2014 02:36:00      8.781     0.508     0.048       3.2
  OCT-22-2014 02:38:00      8.456     0.501     0.048       3.2
  OCT-22-2014 02:40:00      8.147     0.494     0.047       3.1
  OCT-22-2014 02:42:00      7.852     0.488     0.046       3.1
  OCT-22-2014 02:44:00      7.570     0.481     0.045       3.0
  OCT-22-2014 02:46:00      7.299     0.475     0.045       3.0
  OCT-22-2014 02:48:00      7.040     0.469     0.044       2.9
  OCT-22-2014 02:50:00      6.792     0.462     0.043       2.9
  OCT-22-2014 02:52:00      6.554     0.457     0.043       2.9
  OCT-22-2014 02:54:00      6.327     0.451     0.042       2.8
  OCT-22-2014 02:56:00      6.111     0.445     0.042       2.8
  OCT-22-2014 02:58:00      5.905     0.439     0.041       2.7
  OCT-22-2014 03:00:00      5.708     0.434     0.040       2.7
  OCT-22-2014 03:02:00      5.524     0.429     0.040       2.7
  OCT-22-2014 03:04:00      5.350     0.424     0.039       2.6
  OCT-22-2014 03:06:00      5.185     0.419     0.039       2.6
  OCT-22-2014 03:08:00      5.025     0.414     0.038       2.5
  OCT-22-2014 03:10:00      4.869     0.410     0.038       2.5
  OCT-22-2014 03:12:00      4.717     0.405     0.037       2.5
  OCT-22-2014 03:14:00      4.569     0.400     0.037       2.5
  OCT-22-2014 03:16:00      4.425     0.396     0.036       2.4
  OCT-22-2014 03:18:00      4.286     0.391     0.036       2.4
  OCT-22-2014 03:20:00      4.152     0.387     0.035       2.4
  OCT-22-2014 03:22:00      4.024     0.383     0.035       2.3
  OCT-22-2014 03:24:00      3.902     0.379     0.034       2.3
  OCT-22-2014 03:26:00      3.786     0.375     0.034       2.3
  OCT-22-2014 03:28:00      3.677     0.371     0.034       2.2
  OCT-22-2014 03:30:00      3.575     0.368     0.033       2.2
  OCT-22-2014 03:32:00      3.478     0.365     0.033       2.2
  OCT-22-2014 03:34:00      3.389     0.362     0.032       2.2
  OCT-22-2014 03:36:00      3.311     0.360     0.032       2.1
  OCT-22-2014 03:38:00      3.241     0.358     0.032       2.1
  OCT-22-2014 03:40:00      3.177     0.356     0.031       2.1
  OCT-22-2014 03:42:00      3.120     0.355     0.031       2.1
  OCT-22-2014 03:44:00      3.072     0.353     0.031       2.1
  OCT-22-2014 03:46:00      3.034     0.353     0.031       2.0
  OCT-22-2014 03:48:00      3.007     0.352     0.030       2.0
  OCT-22-2014 03:50:00      2.991     0.353     0.030       2.0
  OCT-22-2014 03:52:00      2.987     0.353     0.030       2.0
  OCT-22-2014 03:54:00      2.996     0.354     0.030       2.0
  OCT-22-2014 03:56:00      3.016     0.356     0.030       2.0
  OCT-22-2014 03:58:00      3.046     0.358     0.030       2.0
  OCT-22-2014 04:00:00      3.085     0.360     0.031       2.0
  OCT-22-2014 04:02:00      3.131     0.362     0.031       2.0
  OCT-22-2014 04:04:00      3.182     0.364     0.031       2.1
  OCT-22-2014 04:06:00      3.235     0.366     0.031       2.1
  OCT-22-2014 04:08:00      3.288     0.368     0.031       2.1
  OCT-22-2014 04:10:00      3.339     0.369     0.032       2.1
  OCT-22-2014 04:12:00      3.388     0.371     0.032       2.1
  OCT-22-2014 04:14:00      3.432     0.372     0.032       2.1
  OCT-22-2014 04:16:00      3.467     0.373     0.032       2.1
  OCT-22-2014 04:18:00      3.493     0.374     0.032       2.2
  OCT-22-2014 04:20:00      3.508     0.374     0.032       2.2
  OCT-22-2014 04:22:00      3.513     0.373     0.032       2.2
  OCT-22-2014 04:24:00      3.508     0.372     0.032       2.2
  OCT-22-2014 04:26:00      3.493     0.371     0.032       2.2
  OCT-22-2014 04:28:00      3.469     0.370     0.032       2.2
  OCT-22-2014 04:30:00      3.438     0.368     0.032       2.2
  OCT-22-2014 04:32:00      3.400     0.366     0.032       2.1
  OCT-22-2014 04:34:00      3.356     0.364     0.032       2.1
  OCT-22-2014 04:36:00      3.312     0.363     0.032       2.1
  OCT-22-2014 04:38:00      3.262     0.361     0.032       2.1
  OCT-22-2014 04:40:00      3.208     0.359     0.031       2.1
  OCT-22-2014 04:42:00      3.151     0.357     0.031       2.1
  OCT-22-2014 04:44:00      3.091     0.354     0.031       2.1
  OCT-22-2014 04:46:00      3.029     0.352     0.031       2.0
  OCT-22-2014 04:48:00      2.965     0.350     0.030       2.0
  OCT-22-2014 04:50:00      2.901     0.347     0.030       2.0
  OCT-22-2014 04:52:00      2.836     0.345     0.030       2.0
  OCT-22-2014 04:54:00      2.771     0.342     0.029       2.0
  OCT-22-2014 04:56:00      2.705     0.339     0.029       1.9
  OCT-22-2014 04:58:00      2.640     0.336     0.029       1.9
  OCT-22-2014 05:00:00      2.576     0.333     0.029       1.9
  OCT-22-2014 05:02:00      2.512     0.330     0.028       1.9
  OCT-22-2014 05:04:00      2.449     0.327     0.028       1.9
  OCT-22-2014 05:06:00      2.387     0.323     0.028       1.8
  OCT-22-2014 05:08:00      2.326     0.321     0.027       1.8
  OCT-22-2014 05:10:00      2.266     0.318     0.027       1.8
  OCT-22-2014 05:12:00      2.208     0.315     0.027       1.8
  OCT-22-2014 05:14:00      2.150     0.312     0.026       1.7
  OCT-22-2014 05:16:00      2.094     0.309     0.026       1.7
  OCT-22-2014 05:18:00      2.039     0.307     0.026       1.7
  OCT-22-2014 05:20:00      1.986     0.304     0.025       1.7
  OCT-22-2014 05:22:00      1.934     0.301     0.025       1.7
  OCT-22-2014 05:24:00      1.883     0.299     0.025       1.6
  OCT-22-2014 05:26:00      1.833     0.296     0.024       1.6
  OCT-22-2014 05:28:00      1.785     0.294     0.024       1.6
  OCT-22-2014 05:30:00      1.738     0.291     0.024       1.6
  OCT-22-2014 05:32:00      1.693     0.289     0.023       1.6
  OCT-22-2014 05:34:00      1.648     0.286     0.023       1.5
  OCT-22-2014 05:36:00      1.605     0.284     0.023       1.5
  OCT-22-2014 05:38:00      1.563     0.281     0.022       1.5
  OCT-22-2014 05:40:00      1.523     0.279     0.022       1.5
  OCT-22-2014 05:42:00      1.483     0.277     0.022       1.5
  OCT-22-2014 05:44:00      1.445     0.274     0.022       1.4
  OCT-22-2014 05:46:00      1.407     0.272     0.021       1.4
  OCT-22-2014 05:48:00      1.371     0.270     0.021       1.4
  OCT-22-2014 05:50:00      1.336     0.268     0.021       1.4
  OCT-22-2014 05:52:00      1.302     0.266     0.020       1.4
  OCT-22-2014 05:54:00      1.269     0.264     0.020       1.3
  OCT-22-2014 05:56:00      1.237     0.261     0.020       1.3
  OCT-22-2014 05:58:00      1.206     0.259     0.020       1.3
  OCT-22-2014 06:00:00      1.176     0.257     0.019       1.3
  OCT-22-2014 06:02:00      1.146     0.255     0.019       1.3
  

  Analysis begun on:  Tue Dec 20 14:10:41 2016
  Analysis ended on:  Tue Dec 20 14:10:44 2016
  Total elapsed time: 00:00:03